93
Properties=species:S:1:pos:R:3 pbc="F F F"
Ag      -6.24082245      -2.08027415       0.00000000
Ag      -6.24082245       0.00000000      -2.08027415
Ag      -8.32109660       0.00000000       0.00000000
Ag      -6.24082245       0.00000000       2.08027415
Ag      -6.24082245       2.08027415       0.00000000
Ag      -2.08027415      -6.24082245       0.00000000
Ag      -4.16054830      -4.16054830      -4.16054830
Ag      -4.16054830      -2.08027415      -2.08027415
Ag      -2.08027415      -4.16054830      -2.08027415
Ag      -2.08027415      -2.08027415      -4.16054830
Ag      -4.16054830      -4.16054830       0.00000000
Ag      -4.16054830      -2.08027415       2.08027415
Ag      -2.08027415      -4.16054830       2.08027415
Ag      -2.08027415      -2.08027415       0.00000000
Ag      -4.16054830      -4.16054830       4.16054830
Ag      -2.08027415      -2.08027415       4.16054830
Ag      -2.08027415       0.00000000      -6.24082245
Ag      -4.16054830       0.00000000      -4.16054830
Ag      -4.16054830       2.08027415      -2.08027415
Ag      -2.08027415       0.00000000      -2.08027415
Ag      -2.08027415       2.08027415      -4.16054830
Ag      -4.16054830       0.00000000       0.00000000
Ag      -4.16054830       2.08027415       2.08027415
Ag      -2.08027415       0.00000000       2.08027415
Ag      -2.08027415       2.08027415       0.00000000
Ag      -4.16054830       0.00000000       4.16054830
Ag      -2.08027415       0.00000000       6.24082245
Ag      -2.08027415       2.08027415       4.16054830
Ag      -4.16054830       4.16054830      -4.16054830
Ag      -2.08027415       4.16054830      -2.08027415
Ag      -4.16054830       4.16054830       0.00000000
Ag      -2.08027415       4.16054830       2.08027415
Ag      -2.08027415       6.24082245       0.00000000
Ag      -4.16054830       4.16054830       4.16054830
Ag       0.00000000      -6.24082245      -2.08027415
Ag       0.00000000      -8.32109660       0.00000000
Ag       0.00000000      -6.24082245       2.08027415
Ag       2.08027415      -6.24082245       0.00000000
Ag       0.00000000      -2.08027415      -6.24082245
Ag       0.00000000      -4.16054830      -4.16054830
Ag       0.00000000      -2.08027415      -2.08027415
Ag       2.08027415      -4.16054830      -2.08027415
Ag       2.08027415      -2.08027415      -4.16054830
Ag       0.00000000      -4.16054830       0.00000000
Ag       0.00000000      -2.08027415       2.08027415
Ag       2.08027415      -4.16054830       2.08027415
Ag       2.08027415      -2.08027415       0.00000000
Ag       0.00000000      -4.16054830       4.16054830
Ag       0.00000000      -2.08027415       6.24082245
Ag       2.08027415      -2.08027415       4.16054830
Ag       0.00000000       0.00000000      -8.32109660
Ag       0.00000000       2.08027415      -6.24082245
Ag       2.08027415       0.00000000      -6.24082245
Ag       0.00000000       0.00000000      -4.16054830
Ag       0.00000000       2.08027415      -2.08027415
Ag       2.08027415       0.00000000      -2.08027415
Ag       2.08027415       2.08027415      -4.16054830
Ag       0.00000000       0.00000000       0.00000000
Ag       0.00000000       2.08027415       2.08027415
Ag       2.08027415       0.00000000       2.08027415
Ag       2.08027415       2.08027415       0.00000000
Ag       0.00000000       0.00000000       4.16054830
Ag       0.00000000       2.08027415       6.24082245
Ag       2.08027415       0.00000000       6.24082245
Ag       2.08027415       2.08027415       4.16054830
Ag       0.00000000       0.00000000       8.32109660
Ag       0.00000000       4.16054830      -4.16054830
Ag       0.00000000       6.24082245      -2.08027415
Ag       2.08027415       4.16054830      -2.08027415
Ag       0.00000000       4.16054830       0.00000000
Ag       0.00000000       6.24082245       2.08027415
Ag       2.08027415       4.16054830       2.08027415
Ag       2.08027415       6.24082245       0.00000000
Ag       0.00000000       4.16054830       4.16054830
Ag       0.00000000       8.32109660       0.00000000
Ag       4.16054830      -4.16054830      -4.16054830
Ag       4.16054830      -2.08027415      -2.08027415
Ag       4.16054830      -4.16054830       0.00000000
Ag       4.16054830      -2.08027415       2.08027415
Ag       6.24082245      -2.08027415       0.00000000
Ag       4.16054830      -4.16054830       4.16054830
Ag       4.16054830       0.00000000      -4.16054830
Ag       4.16054830       2.08027415      -2.08027415
Ag       6.24082245       0.00000000      -2.08027415
Ag       4.16054830       0.00000000       0.00000000
Ag       4.16054830       2.08027415       2.08027415
Ag       6.24082245       0.00000000       2.08027415
Ag       6.24082245       2.08027415       0.00000000
Ag       4.16054830       0.00000000       4.16054830
Ag       4.16054830       4.16054830      -4.16054830
Ag       4.16054830       4.16054830       0.00000000
Ag       4.16054830       4.16054830       4.16054830
Ag       8.32109660       0.00000000       0.00000000
